Estimador_Hibrido/casos/Caso_Ref_sem_PMU.txt
================================================================================= 
=== UFF - Doutorado em Computação - Aplicaçoes em Sistemas de Potencia        === 
=== ESTIMADOR DE ESTADO MÍNIMOS QUADRADOS PONDERADOS INCLUINDO MEDIDAS DE PMU === 
=== Desenvolvido por: Rui Menezes de Moraes - 2009                            === 
================================================================================= 
Arquivo de medidores:          ./med/Caso_Ref_sem_PMU.med
Arquivo do sistema:            ./sist/ieee14.cdf
Tolerância entre iteraçoes:    1.00e-006
Limite de iteraçoes:           10

--- DADOS DA REDE --------------------------------------------------------------- 
Data do caso:                  08/19/93
Origem:                        UW ARCHIVE          
MVA base:                      100
Ano:                           1962
Estação:                       W
Identificação:                 IEEE 14 Bus Test Case
Número de barras:              14 
Número de ramos:               20 
Referência na barra:           1

--- TELEMEDIDAS ------------------------------------------------------------------
    Tipo 1 = Fluxo de potencia ativa        Tipo  6 = Módulo da tensão            
    Tipo 2 = Injeção de potencia ativa      Tipo  7 = Corrente de ramo (real)     
    Tipo 3 = Ângulo de fase da tensão       Tipo  8 = Corrente de ramo (imag)     
    Tipo 4 = Fluxo de potencia reativa      Tipo  9 = Injeção de corrente (real)  
    Tipo 5 = Injeção de potencia reativa    Tipo 10 = Injeção de corrente (imag)  
----------------------------------------------------------------------------------
   N    D    P TP  PN ST   Exa   FS       DP      V_Ref      V_Med          E(%) 
----------------------------------------------------------------------------------
   1    0    1  3   1  1 0.020 01.0  0.00000   +0.00000   -0.00002     +0.000000 
   2    0    2  3   1  1 0.020 01.0  0.00000   -0.08692   -0.08694     +0.023010 
   3    0    3  3   1  1 0.020 01.0  0.00000   -0.22218   -0.22206     -0.054010 
   4    0    4  3   1  1 0.020 01.0  0.00000   -0.17994   -0.17994     +0.000000 
   5    0    5  3   1  1 0.020 01.0  0.00000   -0.15307   -0.15308     +0.006533 
   6    0    6  3   1  1 0.020 01.0  0.00000   -0.24819   -0.24828     +0.036263 
   7    0    7  3   1  1 0.020 01.0  0.00000   -0.23318   -0.23314     -0.017154 
   8    0    8  3   1  1 0.020 01.0  0.00000   -0.23318   -0.23333     +0.064328 
   9    0    9  3   1  1 0.020 01.0  0.00000   -0.26075   -0.26067     -0.030681 
  10    0   10  3   1  1 0.020 01.0  0.00000   -0.26354   -0.26336     -0.068301 
  11    0   11  3   1  1 0.020 01.0  0.00000   -0.25813   -0.25821     +0.030992 
  12    0   12  3   1  1 0.020 01.0  0.00000   -0.26320   -0.26310     -0.037994 
  13    0   13  3   1  1 0.020 01.0  0.00000   -0.26459   -0.26445     -0.052912 
  14    0   14  3   1  1 0.020 01.0  0.00000   -0.27978   -0.27996     +0.064336 
  15    1    2  1   0  0 0.020 01.0  0.00015   +1.56805   +1.56277     -0.336724 
  16    1    5  1   0  0 0.020 01.0  0.00005   +0.75460   +0.74333     -1.493506 
  17    2    3  1   0  0 0.020 01.0  0.00004   +0.73305   +0.73388     +0.113226 
  18    4    7  1   0  0 0.020 01.0  0.00001   +0.28126   +0.28230     +0.369765 
  19    4    9  1   0  0 0.020 01.0  0.00001   +0.16101   +0.15779     -1.999876 
  20    5    2  1   0  0 0.020 01.0  0.00002   -0.40536   -0.40007     -1.305013 
  21    6   11  1   0  0 0.020 01.0  0.00001   +0.07337   +0.07601     +3.598201 
  22    6   12  1   0  0 0.020 01.0  0.00001   +0.07850   +0.07841     -0.114650 
  23    6   13  1   0  0 0.020 01.0  0.00001   +0.17927   +0.18023     +0.535505 
  24    7    8  1   0  0 0.020 01.0  0.00000   -0.00000   +0.00030     +0.000000 
  25    8    7  1   0  0 0.020 01.0  0.00000   +0.00000   -0.00032     +0.000000 
  26    9   10  1   0  0 0.020 01.0  0.00000   +0.05275   +0.05426     +2.862559 
  27    9   14  1   0  0 0.020 01.0  0.00001   +0.09340   +0.09201     -1.488223 
  28   12   13  1   0  0 0.020 01.0  0.00000   +0.01662   +0.02064    +24.187726 
  29    0    3  2   0  0 0.020 01.0  0.00006   -0.94406   -0.94516     +0.116518 
  30    0    6  2   0  0 0.020 01.0  0.00001   -0.11019   -0.10990     -0.263182 
  31    0    9  2   0  0 0.020 01.0  0.00001   -0.29595   -0.29200     -1.334685 
  32    0   10  2   0  0 0.020 01.0  0.00001   -0.09091   -0.09077     -0.153998 
  33    0   13  2   0  0 0.020 01.0  0.00001   -0.13855   -0.13880     +0.180440 
  34    2    1  7   1  1 0.010 01.0  0.00002   -1.47689   -1.46993     -0.471261 
  35    2    3  7   1  1 0.010 01.0  0.00001   +0.69588   +0.69402     -0.267287 
  36    2    4  7   1  1 0.010 01.0  0.00000   +0.53613   +0.53707     +0.175331 
  37    2    5  7   1  1 0.010 01.0  0.00000   +0.39426   +0.39455     +0.073556 
  38    0    2  9   1  1 0.010 01.0  0.00000   +0.14938   +0.14951     +0.087026 
  39    0    1  6   0  0 0.015 01.1  0.00003   +1.06000   +1.05559     -0.416038 
  40    0    2  6   1  1 0.010 01.0  0.00001   +1.04500   +1.03941     -0.534928 
  41    1    2  4   0  0 0.020 01.0  0.00001   -0.20386   -0.20295     -0.446385 
  42    1    5  4   0  0 0.020 01.0  0.00000   +0.03634   +0.03370     -7.264722 
  43    2    3  4   0  0 0.020 01.0  0.00000   +0.03554   +0.03694     +3.939223 
  44    4    7  4   0  0 0.020 01.0  0.00001   -0.09754   -0.09367     -3.967603 
  45    4    9  4   0  0 0.020 01.0  0.00000   -0.00375   -0.00497    +32.533333 
  46    5    2  4   0  0 0.020 01.0  0.00000   -0.01848   -0.01689     -8.603896 
  47    6   11  4   0  0 0.020 01.0  0.00000   +0.03518   +0.03765     +7.021035 
  48    6   12  4   0  0 0.020 01.0  0.00000   +0.02552   +0.02249    -11.873041 
  49    6   13  4   0  0 0.020 01.0  0.00001   +0.07440   +0.07119     -4.314516 
  50    7    8  4   0  0 0.020 01.0  0.00001   -0.16881   -0.16718     -0.965583 
  51    8    7  4   0  0 0.020 01.0  0.00001   +0.17326   +0.17211     -0.663742 
  52    9   10  4   0  0 0.020 01.0  0.00000   +0.04268   +0.04407     +3.256795 
  53    9   14  4   0  0 0.020 01.0  0.00000   +0.03494   +0.03654     +4.579279 
  54   12   13  4   0  0 0.020 01.0  0.00000   +0.00803   +0.00930    +15.815691 
  55    0    3  5   0  0 0.020 01.0  0.00001   +0.05965   +0.06240     +4.610226 
  56    0    6  5   0  0 0.020 01.0  0.00000   +0.05243   +0.05382     +2.651154 
  57    0    9  5   0  0 0.020 01.0  0.00000   -0.17115   -0.17388     +1.595092 
  58    0   10  5   0  0 0.020 01.0  0.00001   -0.05872   -0.06127     +4.342643 
  59    0   13  5   0  0 0.020 01.0  0.00001   -0.06255   -0.06259     +0.063949 
  60    2    1  8   1  1 0.010 01.0  0.00000   -0.13685   -0.13727     +0.306905 
  61    2    3  8   1  1 0.010 01.0  0.00000   -0.09477   -0.09546     +0.728079 
  62    2    4  8   1  1 0.010 01.0  0.00000   -0.03010   -0.03010     +0.000000 
  63    2    5  8   1  1 0.010 01.0  0.00000   -0.04305   -0.04319     +0.325203 
  64    0    2 10   1  1 0.010 01.0  0.00000   -0.30477   -0.30584     +0.351084 
  65    0    2  3   1  1 0.020 01.0  0.00000   -0.08692   -0.08691     -0.011505 
  66    0    2  3   1  1 0.020 01.0  0.00000   -0.08692   -0.08693     +0.011505 
  67    0    9  3   1  1 0.020 01.0  0.00000   -0.26075   -0.26070     -0.019175 
  68    0   13  3   1  1 0.020 01.0  0.00000   -0.26459   -0.26450     -0.034015 
----------------------------------------------------------------------------------
Número de medidores SCADA:     39
Número de PMUs:                1
Número de medidas das PMUs:    29
----------------------------------------------------------------------------------

Matriz de pesos formada com as covariâncias das telemedidas.
Não há medidas de ângulo.
Medidores desabilitados:
Medidor 1.
Medidor 2.
Medidor 3.
Medidor 4.
Medidor 5.
Medidor 6.
Medidor 7.
Medidor 8.
Medidor 9.
Medidor 10.
Medidor 11.
Medidor 12.
Medidor 13.
Medidor 14.
Medidor 34.
Medidor 35.
Medidor 36.
Medidor 37.
Medidor 38.
Medidor 40.
Medidor 60.
Medidor 61.
Medidor 62.
Medidor 63.
Medidor 64.
Medidor 65.
Medidor 66.
Medidor 67.
Medidor 68.
============= Estado Ref =============== Estado Est ================ TVE =========
Barra     Mod(pu)    Ang(graus)      Mod(pu)   Ang(graus)            (%)         
----------------------------------------------------------------------------------
   1       1.0600         0.00        1.0544         0.00          0.5288 
   2       1.0450        -4.98        1.0395        -5.00          0.5317 
   3       1.0100       -12.73        1.0043       -12.85          0.6026 
   4       1.0180       -10.31        1.0124       -10.38          0.5641 
   5       1.0200        -8.77        1.0150        -8.78          0.4916 
   6       1.0700       -14.22        1.0648       -14.30          0.5094 
   7       1.0620       -13.36        1.0560       -13.46          0.5916 
   8       1.0900       -13.36        1.0839       -13.47          0.5855 
   9       1.0560       -14.94        1.0496       -15.04          0.6274 
  10       1.0510       -15.10        1.0445       -15.20          0.6415 
  11       1.0570       -14.79        1.0509       -14.89          0.6082 
  12       1.0550       -15.08        1.0506       -15.17          0.4451 
  13       1.0500       -15.16        1.0447       -15.25          0.5286 
  14       1.0360       -16.03        1.0296       -16.13          0.6410 
----------------------------------------------------------------------------------
Convergiu em:    4 iteraçoes com TVE medio de     0.5641 
----------------------------------------------------------------------------------
--- RESIDUOS NORMALIZADOS --------------------------------------------------------
--- Fluxo de potencia ativa     --------------------------------------------------
   N    D    P  TP      Real     Medido   Estimado      Med-Est        rn 
----------------------------------------------------------------------------------
  26    9   10  1    +0.0527    +0.0543    +0.0533  +1.0055e-003      1.339 
  28   12   13  1    +0.0166    +0.0206    +0.0190  +1.6674e-003      1.258 
  19    4    9  1    +0.1610    +0.1578    +0.1601  -2.3188e-003      0.924 
  22    6   12  1    +0.0785    +0.0784    +0.0771  +1.3318e-003      0.854 
  15    1    2  1    +1.5680    +1.5628    +1.5589  +3.8317e-003      0.770 
  18    4    7  1    +0.2813    +0.2823    +0.2812  +1.0883e-003      0.767 
  21    6   11  1    +0.0734    +0.0760    +0.0766  -5.8470e-004      0.760 
  16    1    5  1    +0.7546    +0.7433    +0.7469  -3.5873e-003      0.646 
  20    5    2  1    -0.4054    -0.4001    -0.3987  -1.3363e-003      0.555 
  27    9   14  1    +0.0934    +0.0920    +0.0924  -3.8066e-004      0.487 
  23    6   13  1    +0.1793    +0.1802    +0.1794  +8.5228e-004      0.368 
  17    2    3  1    +0.7330    +0.7339    +0.7342  -2.9872e-004      0.061 
  24    7    8  1    -0.0000    +0.0003    +0.0003  -1.0004e-005      0.008 
  25    8    7  1    +0.0000    -0.0003    -0.0003  -9.9964e-006      0.008 
--- Injeção de potencia ativa   --------------------------------------------------
   N    D    P  TP      Real     Medido   Estimado      Med-Est        rn 
----------------------------------------------------------------------------------
  32    0   10  2    -0.0909    -0.0908    -0.0914  +6.5292e-004      1.112 
  31    0    9  2    -0.2959    -0.2920    -0.2912  -7.8556e-004      1.025 
  33    0   13  2    -0.1386    -0.1388    -0.1399  +1.1334e-003      0.938 
  29    0    3  2    -0.9441    -0.9452    -0.9471  +1.9821e-003      0.538 
  30    0    6  2    -0.1102    -0.1099    -0.1099  -3.9165e-005      0.098 
--- Fluxo de potencia reativa   --------------------------------------------------
   N    D    P  TP      Real     Medido   Estimado      Med-Est        rn 
----------------------------------------------------------------------------------
  44    4    7  4    -0.0975    -0.0937    -0.0956  +1.9732e-003      2.065 
  53    9   14  4    +0.0349    +0.0365    +0.0351  +1.4788e-003      2.061 
  49    6   13  4    +0.0744    +0.0712    +0.0740  -2.7772e-003      1.586 
  45    4    9  4    -0.0037    -0.0050    -0.0026  -2.3870e-003      1.565 
  43    2    3  4    +0.0355    +0.0369    +0.0360  +8.9374e-004      1.212 
  52    9   10  4    +0.0427    +0.0441    +0.0435  +6.1652e-004      0.628 
  54   12   13  4    +0.0080    +0.0093    +0.0100  -6.8810e-004      0.516 
  47    6   11  4    +0.0352    +0.0377    +0.0381  -4.3714e-004      0.462 
  42    1    5  4    +0.0363    +0.0337    +0.0342  -4.7612e-004      0.352 
  41    1    2  4    -0.2039    -0.2029    -0.2032  +2.8856e-004      0.316 
  50    7    8  4    -0.1688    -0.1672    -0.1674  +2.5446e-004      0.124 
  51    8    7  4    +0.1733    +0.1721    +0.1719  +2.4729e-004      0.124 
  46    5    2  4    -0.0185    -0.0169    -0.0170  +7.0957e-005      0.074 
  48    6   12  4    +0.0255    +0.0225    +0.0224  +7.8983e-005      0.062 
--- Injeção de potencia reativa --------------------------------------------------
   N    D    P  TP      Real     Medido   Estimado      Med-Est        rn 
----------------------------------------------------------------------------------
  57    0    9  5    -0.1712    -0.1739    -0.1724  -1.5065e-003      2.024 
  59    0   13  5    -0.0625    -0.0626    -0.0614  -1.2116e-003      1.273 
  55    0    3  5    +0.0597    +0.0624    +0.0619  +5.0686e-004      1.199 
  56    0    6  5    +0.0524    +0.0538    +0.0532  +6.0095e-004      1.141 
  58    0   10  5    -0.0587    -0.0613    -0.0612  -1.0221e-004      0.157 
--- Módulo da tensão            --------------------------------------------------
   N    D    P  TP      Real     Medido   Estimado      Med-Est        rn 
----------------------------------------------------------------------------------
  39    0    1  6    +1.0600    +1.0556    +1.0544  +1.1955e-003      0.446 
----------------------------------------------------------------------------------
Não foram identificados erros grosseiros.
Não foram identificadas medidas críticas.
Possíveis conjuntos críticos:
Conjunto 1: 25 24
Conjunto 2: 17 48
Conjunto 3: 51 50
Conjunto 4: 21 18
Conjunto 5: 18 15
Conjunto 6: 53 44
Medidas com alta correlação: 25 e 24 
Medidas com alta correlação: 51 e 50 
